6np5_ligand
     RDKit          3D

 33 35  0  0  0  0  0  0  0  0999 V2000
  108.8912  -15.2069   -6.5845 C   0  0  2  0  0  0  0  0  0  0  0  0
  107.8334  -14.1969   -6.3397 C   0  0  1  0  0  0  0  0  0  0  0  0
  106.4438  -14.9100   -5.9617 C   0  0  2  0  0  0  0  0  0  0  0  0
  106.0775  -16.0472   -6.8889 C   0  0  1  0  0  0  0  0  0  0  0  0
  107.2290  -17.0787   -6.7067 C   0  0  1  0  0  0  0  0  0  0  0  0
  106.9480  -18.3156   -7.5619 C   0  0  0  0  0  0  0  0  0  0  0  0
  113.6999  -15.6919   -5.2584 C   0  0  1  0  0  0  0  0  0  0  0  0
  113.0817  -15.4751   -6.6375 C   0  0  1  0  0  0  0  0  0  0  0  0
  111.7478  -14.9089   -6.5192 C   0  0  2  0  0  0  0  0  0  0  0  0
  110.8513  -15.7253   -5.6276 C   0  0  1  0  0  0  0  0  0  0  0  0
  111.4613  -15.8633   -4.2793 C   0  0  2  0  0  0  0  0  0  0  0  0
  112.7620  -16.6929   -4.5391 C   0  0  0  0  0  0  0  0  0  0  0  0
  114.4666  -14.8710   -8.4985 C   0  0  1  0  0  0  0  0  0  0  0  0
  115.4408  -13.7910   -8.9883 C   0  0  1  0  0  0  0  0  0  0  0  0
  115.0220  -13.1434  -10.2925 C   0  0  2  0  0  0  0  0  0  0  0  0
  114.4657  -14.0826  -11.3541 C   0  0  1  0  0  0  0  0  0  0  0  0
  113.3070  -14.9136  -10.6650 C   0  0  1  0  0  0  0  0  0  0  0  0
  112.6875  -16.0383  -11.7557 C   0  0  0  0  0  0  0  0  0  0  0  0
  107.5730  -19.4859   -6.9647 N   0  0  0  0  0  0  0  0  0  0  0  0
  110.5817  -16.4637   -3.3557 N   0  0  0  0  0  0  0  0  0  0  0  0
  115.0468  -16.1967   -5.2697 N   0  0  0  0  0  0  0  0  0  0  0  0
  116.1153  -12.2484  -10.8833 N   0  0  0  0  0  0  0  0  0  0  0  0
  108.4581  -16.4364   -7.1886 O   0  0  0  0  0  0  0  0  0  0  0  0
  105.4144  -13.8170   -6.1140 O   0  0  0  0  0  0  0  0  0  0  0  0
  104.8787  -16.6052   -6.4625 O   0  0  0  0  0  0  0  0  0  0  0  0
  109.6925  -15.1895   -5.4856 O   0  0  0  0  0  0  0  0  0  0  0  0
  111.1785  -14.6620   -7.7818 O   0  0  0  0  0  0  0  0  0  0  0  0
  113.7682  -14.5405   -7.4074 O   0  0  0  0  0  0  0  0  0  0  0  0
  113.6704  -15.5346   -9.4949 O   0  0  0  0  0  0  0  0  0  0  0  0
  115.6269  -12.8164   -7.9326 O   0  0  0  0  0  0  0  0  0  0  0  0
  113.9547  -13.3841  -12.4545 O   0  0  0  0  0  0  0  0  0  0  0  0
  111.6285  -16.5808  -11.0837 O   0  0  0  0  0  0  0  0  0  0  0  0
  108.1932  -13.1880   -5.2435 N   0  0  0  0  0  0  0  0  0  0  0  0
  1  2  1  0
  1 23  1  0
  1 26  1  1
  2  3  1  0
  2 33  1  1
  3  4  1  0
  3 24  1  6
  5  4  1  0
  4 25  1  1
  5  6  1  6
 23  5  1  0
  6 19  1  0
  8  7  1  0
  7 12  1  0
  7 21  1  6
  8  9  1  0
  8 28  1  6
  9 10  1  0
  9 27  1  6
 10 11  1  0
 10 26  1  1
 12 11  1  0
 11 20  1  1
 13 14  1  0
 13 28  1  1
 13 29  1  0
 14 15  1  0
 14 30  1  1
 15 16  1  0
 15 22  1  6
 16 17  1  0
 16 31  1  6
 17 18  1  6
 17 29  1  0
 18 32  1  0
M  CHG  5  19   1  20   1  21   1  22   1  33   1
M  END
$$$$
