6np5_ligand
     RDKit          3D

 33 35  0  0  0  0  0  0  0  0999 V2000
    5.2148    0.3686    6.4956 C   0  0  2  0  0  0  0  0  0  0  0  0
    4.3828   -0.9163    6.6213 C   0  0  1  0  0  0  0  0  0  0  0  0
    2.8206   -0.5655    6.8144 C   0  0  2  0  0  0  0  0  0  0  0  0
    2.5877    0.4090    8.0081 C   0  0  1  0  0  0  0  0  0  0  0  0
    3.3364    1.6555    7.6821 C   0  0  1  0  0  0  0  0  0  0  0  0
    3.0632    2.7111    8.7470 C   0  0  0  0  0  0  0  0  0  0  0  0
    8.4913    1.8386    2.8968 C   0  0  1  0  0  0  0  0  0  0  0  0
    8.6173    1.0865    4.2075 C   0  0  1  0  0  0  0  0  0  0  0  0
    7.3872    0.2684    4.3170 C   0  0  2  0  0  0  0  0  0  0  0  0
    6.2494    1.1901    4.5266 C   0  0  1  0  0  0  0  0  0  0  0  0
    6.0064    1.9711    3.3561 C   0  0  2  0  0  0  0  0  0  0  0  0
    7.3105    2.8341    3.1597 C   0  0  0  0  0  0  0  0  0  0  0  0
   10.5432    0.5670    5.4773 C   0  0  1  0  0  0  0  0  0  0  0  0
   12.0146    0.1689    5.1047 C   0  0  1  0  0  0  0  0  0  0  0  0
   12.3445   -1.1991    5.6067 C   0  0  2  0  0  0  0  0  0  0  0  0
   12.1097   -1.3970    7.0728 C   0  0  1  0  0  0  0  0  0  0  0  0
   10.6719   -0.9937    7.3842 C   0  0  1  0  0  0  0  0  0  0  0  0
   10.1396   -1.4047    8.7172 C   0  0  0  0  0  0  0  0  0  0  0  0
    3.3673    3.8746    8.6458 N   0  0  0  0  0  0  0  0  0  0  0  0
    4.9206    2.8714    3.5690 N   0  0  0  0  0  0  0  0  0  0  0  0
    9.6746    2.4546    2.4617 N   0  0  0  0  0  0  0  0  0  0  0  0
   13.8225   -1.5579    5.4185 N   0  0  0  0  0  0  0  0  0  0  0  0
    4.8003    1.3812    7.3837 O   0  0  0  0  0  0  0  0  0  0  0  0
    2.1487   -1.8287    7.1891 O   0  0  0  0  0  0  0  0  0  0  0  0
    1.1985    0.6542    8.0589 O   0  0  0  0  0  0  0  0  0  0  0  0
    5.2187    0.6961    5.1460 O   0  0  0  0  0  0  0  0  0  0  0  0
    7.5185   -0.6697    5.3032 O   0  0  0  0  0  0  0  0  0  0  0  0
    9.6116    0.2028    4.3952 O   0  0  0  0  0  0  0  0  0  0  0  0
   10.0890    0.1695    6.6997 O   0  0  0  0  0  0  0  0  0  0  0  0
   12.2803    0.2169    3.7035 O   0  0  0  0  0  0  0  0  0  0  0  0
   12.3996   -2.7219    7.4115 O   0  0  0  0  0  0  0  0  0  0  0  0
    9.4146   -2.4845    8.5104 O   0  0  0  0  0  0  0  0  0  0  0  0
    4.5729   -1.8547    5.4414 N   0  0  0  0  0  0  0  0  0  0  0  0
  1  2  1  0
  1 23  1  0
  1 26  1  6
  2  3  1  0
  2 33  1  6
  3  4  1  0
  3 24  1  1
  5  4  1  0
  4 25  1  6
  5  6  1  1
 23  5  1  0
  6 19  1  0
  8  7  1  0
  7 12  1  0
  7 21  1  1
  8  9  1  0
  8 28  1  6
  9 10  1  0
  9 27  1  1
 10 11  1  0
 10 26  1  6
 12 11  1  0
 11 20  1  1
 13 14  1  0
 13 28  1  6
 13 29  1  0
 14 15  1  0
 14 30  1  6
 15 16  1  0
 15 22  1  1
 16 17  1  0
 16 31  1  6
 17 18  1  1
 17 29  1  0
 18 32  1  0
M  CHG  5  19   1  20   1  21   1  22   1  33   1
M  END
$$$$
