6np5_ligand
     RDKit          3D

 33 35  0  0  0  0  0  0  0  0999 V2000
  114.2695  -14.0584   -8.8601 C   0  0  1  0  0  0  0  0  0  0  0  0
  115.2246  -12.9278   -9.1813 C   0  0  1  0  0  0  0  0  0  0  0  0
  114.4711  -12.0609  -10.2435 C   0  0  2  0  0  0  0  0  0  0  0  0
  114.2305  -12.9530  -11.5316 C   0  0  1  0  0  0  0  0  0  0  0  0
  113.3180  -14.1115  -11.0076 C   0  0  1  0  0  0  0  0  0  0  0  0
  113.0361  -15.1343  -12.2755 C   0  0  0  0  0  0  0  0  0  0  0  0
  112.4135  -16.8253   -5.1228 C   0  0  1  0  0  0  0  0  0  0  0  0
  111.7013  -16.1147   -6.0651 C   0  0  1  0  0  0  0  0  0  0  0  0
  112.3513  -15.5378   -7.2251 C   0  0  2  0  0  0  0  0  0  0  0  0
  113.5461  -14.7419   -6.8020 C   0  0  1  0  0  0  0  0  0  0  0  0
  114.4181  -15.5113   -5.8472 C   0  0  2  0  0  0  0  0  0  0  0  0
  113.6387  -15.9719   -4.7071 C   0  0  0  0  0  0  0  0  0  0  0  0
  109.7286  -16.9104   -7.2497 C   0  0  1  0  0  0  0  0  0  0  0  0
  108.6832  -16.2223   -8.1097 C   0  0  1  0  0  0  0  0  0  0  0  0
  107.2580  -16.6692   -7.7577 C   0  0  2  0  0  0  0  0  0  0  0  0
  107.0561  -18.1294   -7.3856 C   0  0  1  0  0  0  0  0  0  0  0  0
  108.0173  -18.4351   -6.2121 C   0  0  1  0  0  0  0  0  0  0  0  0
  107.8521  -20.0041   -5.7605 C   0  0  0  0  0  0  0  0  0  0  0  0
  111.8357  -15.9789  -11.7527 N   0  0  0  0  0  0  0  0  0  0  0  0
  115.4997  -14.5712   -5.3662 N   0  0  0  0  0  0  0  0  0  0  0  0
  111.6396  -17.0007   -3.9114 N   0  0  0  0  0  0  0  0  0  0  0  0
  106.2122  -16.1691   -8.7695 N   0  0  0  0  0  0  0  0  0  0  0  0
  113.9881  -14.9050   -9.9864 O   0  0  0  0  0  0  0  0  0  0  0  0
  115.4249  -10.9837  -10.6355 O   0  0  0  0  0  0  0  0  0  0  0  0
  113.6258  -12.1188  -12.4396 O   0  0  0  0  0  0  0  0  0  0  0  0
  114.3849  -14.5716   -7.9164 O   0  0  0  0  0  0  0  0  0  0  0  0
  111.5780  -14.6077   -7.9593 O   0  0  0  0  0  0  0  0  0  0  0  0
  110.4474  -16.1419   -6.3254 O   0  0  0  0  0  0  0  0  0  0  0  0
  109.3862  -18.1111   -6.6226 O   0  0  0  0  0  0  0  0  0  0  0  0
  108.7298  -14.8156   -7.9103 O   0  0  0  0  0  0  0  0  0  0  0  0
  105.7360  -18.3928   -6.8957 O   0  0  0  0  0  0  0  0  0  0  0  0
  109.0185  -20.5614   -5.8694 O   0  0  0  0  0  0  0  0  0  0  0  0
  115.6005  -12.0189   -7.8863 N   0  0  0  0  0  0  0  0  0  0  0  0
  1  2  1  0
  1 23  1  0
  1 26  1  6
  2  3  1  0
  2 33  1  1
  3  4  1  0
  3 24  1  6
  5  4  1  0
  4 25  1  6
  5  6  1  6
 23  5  1  0
  6 19  1  0
  8  7  1  0
  7 12  1  0
  7 21  1  1
  8  9  1  0
  8 28  1  6
  9 10  1  0
  9 27  1  1
 10 11  1  0
 10 26  1  6
 12 11  1  0
 11 20  1  1
 13 14  1  0
 13 28  1  1
 13 29  1  0
 14 15  1  0
 14 30  1  1
 15 16  1  0
 15 22  1  6
 16 17  1  0
 16 31  1  1
 17 18  1  6
 17 29  1  0
 18 32  1  0
M  CHG  5  19   1  20   1  21   1  22   1  33   1
M  END
$$$$
