6np5_ligand
     RDKit          3D

 33 35  0  0  0  0  0  0  0  0999 V2000
   -1.7923    2.1839   -8.3964 C   0  0  2  0  0  0  0  0  0  0  0  0
   -1.7708    3.5655   -7.7266 C   0  0  1  0  0  0  0  0  0  0  0  0
   -2.2460    3.5174   -6.1761 C   0  0  2  0  0  0  0  0  0  0  0  0
   -3.5477    2.7354   -6.0060 C   0  0  1  0  0  0  0  0  0  0  0  0
   -3.2370    1.2846   -6.5487 C   0  0  1  0  0  0  0  0  0  0  0  0
   -4.5758    0.3974   -6.3987 C   0  0  0  0  0  0  0  0  0  0  0  0
   -0.0546   -0.2136  -11.9427 C   0  0  1  0  0  0  0  0  0  0  0  0
    0.1840    1.2762  -11.6177 C   0  0  1  0  0  0  0  0  0  0  0  0
    0.7183    1.3370  -10.2831 C   0  0  2  0  0  0  0  0  0  0  0  0
   -0.4011    0.8080   -9.4373 C   0  0  1  0  0  0  0  0  0  0  0  0
   -0.2243   -0.6390   -9.3544 C   0  0  2  0  0  0  0  0  0  0  0  0
   -0.5509   -1.1020  -10.8100 C   0  0  0  0  0  0  0  0  0  0  0  0
    0.6564    2.6888  -13.4872 C   0  0  1  0  0  0  0  0  0  0  0  0
    1.9204    3.2070  -14.2510 C   0  0  1  0  0  0  0  0  0  0  0  0
    2.1017    4.6903  -14.0587 C   0  0  2  0  0  0  0  0  0  0  0  0
    0.8650    5.5572  -14.2443 C   0  0  1  0  0  0  0  0  0  0  0  0
   -0.2208    5.0266  -13.2744 C   0  0  1  0  0  0  0  0  0  0  0  0
   -1.5578    5.8826  -13.3896 C   0  0  0  0  0  0  0  0  0  0  0  0
   -4.2055   -0.9296   -7.0779 N   0  0  0  0  0  0  0  0  0  0  0  0
    0.0813   -1.1811   -8.3078 N   0  0  0  0  0  0  0  0  0  0  0  0
   -0.4555   -0.4364  -13.1752 N   0  0  0  0  0  0  0  0  0  0  0  0
    3.1683    5.2272  -15.0295 N   0  0  0  0  0  0  0  0  0  0  0  0
   -2.9207    1.3882   -7.9321 O   0  0  0  0  0  0  0  0  0  0  0  0
   -2.4879    4.9447   -5.7801 O   0  0  0  0  0  0  0  0  0  0  0  0
   -3.9157    2.7208   -4.6520 O   0  0  0  0  0  0  0  0  0  0  0  0
   -0.5992    1.5405   -8.3904 O   0  0  0  0  0  0  0  0  0  0  0  0
    1.1173    2.6126   -9.9579 O   0  0  0  0  0  0  0  0  0  0  0  0
    1.0608    1.9611  -12.3080 O   0  0  0  0  0  0  0  0  0  0  0  0
   -0.4246    3.6224  -13.4043 O   0  0  0  0  0  0  0  0  0  0  0  0
    3.1367    2.5081  -13.8006 O   0  0  0  0  0  0  0  0  0  0  0  0
    1.1690    6.9158  -14.0425 O   0  0  0  0  0  0  0  0  0  0  0  0
   -2.4868    5.3414  -12.5935 O   0  0  0  0  0  0  0  0  0  0  0  0
   -0.4150    4.2249   -7.8262 N   0  0  0  0  0  0  0  0  0  0  0  0
  1  2  1  0
  1 23  1  0
  1 26  1  1
  2  3  1  0
  2 33  1  1
  3  4  1  0
  3 24  1  6
  5  4  1  0
  4 25  1  1
  5  6  1  6
 23  5  1  0
  6 19  1  0
  8  7  1  0
  7 12  1  0
  7 21  1  6
  8  9  1  0
  8 28  1  6
  9 10  1  0
  9 27  1  1
 10 11  1  0
 10 26  1  1
 12 11  1  0
 11 20  1  1
 13 14  1  0
 13 28  1  1
 13 29  1  0
 14 15  1  0
 14 30  1  1
 15 16  1  0
 15 22  1  6
 16 17  1  0
 16 31  1  1
 17 18  1  6
 17 29  1  0
 18 32  1  0
M  CHG  5  19   1  20   1  21   1  22   1  33   1
M  END
$$$$
