6np5_ligand
     RDKit          3D

 33 35  0  0  0  0  0  0  0  0999 V2000
  107.9070  -18.4270   -7.8090 C   0  0  2  0  0  0  0  0  0  0  0  0
  106.5780  -18.9940   -7.3360 C   0  0  1  0  0  0  0  0  0  0  0  0
  106.7230  -20.3650   -6.7940 C   0  0  2  0  0  0  0  0  0  0  0  0
  107.3160  -21.2890   -7.8210 C   0  0  1  0  0  0  0  0  0  0  0  0
  108.5940  -20.6810   -8.4230 C   0  0  1  0  0  0  0  0  0  0  0  0
  109.0600  -21.4520   -9.6270 C   0  0  0  0  0  0  0  0  0  0  0  0
  111.9180  -15.7780   -5.8000 C   0  0  1  0  0  0  0  0  0  0  0  0
  111.3820  -15.6340   -7.2250 C   0  0  1  0  0  0  0  0  0  0  0  0
  110.0210  -16.3280   -7.3600 C   0  0  2  0  0  0  0  0  0  0  0  0
  110.0680  -17.8050   -6.9180 C   0  0  1  0  0  0  0  0  0  0  0  0
  110.7490  -17.9770   -5.5550 C   0  0  2  0  0  0  0  0  0  0  0  0
  112.0960  -17.2600   -5.4700 C   0  0  0  0  0  0  0  0  0  0  0  0
  112.1070  -13.6740   -8.3860 C   0  0  1  0  0  0  0  0  0  0  0  0
  112.2150  -12.2040   -7.9970 C   0  0  1  0  0  0  0  0  0  0  0  0
  110.8940  -11.5080   -8.1560 C   0  0  2  0  0  0  0  0  0  0  0  0
  110.4300  -11.6660   -9.5640 C   0  0  1  0  0  0  0  0  0  0  0  0
  110.3230  -13.1410   -9.9420 C   0  0  1  0  0  0  0  0  0  0  0  0
  109.8460  -13.3870  -11.3290 C   0  0  0  0  0  0  0  0  0  0  0  0
  110.2510  -20.8140  -10.1710 N   0  0  0  0  0  0  0  0  0  0  0  0
  110.9130  -19.4150   -5.3020 N   0  0  0  0  0  0  0  0  0  0  0  0
  113.1940  -15.0790   -5.6630 N   0  0  0  0  0  0  0  0  0  0  0  0
  111.0080  -10.0470   -7.8080 N   0  0  0  0  0  0  0  0  0  0  0  0
  108.3650  -19.3190   -8.8860 O   0  0  0  0  0  0  0  0  0  0  0  0
  105.3980  -20.8340   -6.3730 O   0  0  0  0  0  0  0  0  0  0  0  0
  107.6680  -22.5720   -7.2850 O   0  0  0  0  0  0  0  0  0  0  0  0
  108.7960  -18.4200   -6.7470 O   0  0  0  0  0  0  0  0  0  0  0  0
  109.6200  -16.2610   -8.7160 O   0  0  0  0  0  0  0  0  0  0  0  0
  111.1950  -14.2650   -7.5130 O   0  0  0  0  0  0  0  0  0  0  0  0
  111.6470  -13.7870   -9.7620 O   0  0  0  0  0  0  0  0  0  0  0  0
  112.6200  -12.1780   -6.6470 O   0  0  0  0  0  0  0  0  0  0  0  0
  109.1270  -11.0850   -9.7470 O   0  0  0  0  0  0  0  0  0  0  0  0
  110.6610  -12.7580  -12.2450 O   0  0  0  0  0  0  0  0  0  0  0  0
  106.0380  -18.0630   -6.2890 N   0  0  0  0  0  0  0  0  0  0  0  0
  1  2  1  0
  1 23  1  0
  1 26  1  1
  2  3  1  0
  2 33  1  1
  3  4  1  0
  3 24  1  6
  5  4  1  0
  4 25  1  1
  5  6  1  6
 23  5  1  0
  6 19  1  0
  8  7  1  0
  7 12  1  0
  7 21  1  6
  8  9  1  0
  8 28  1  1
  9 10  1  0
  9 27  1  6
 10 11  1  0
 10 26  1  1
 12 11  1  0
 11 20  1  6
 13 14  1  0
 13 28  1  1
 13 29  1  0
 14 15  1  0
 14 30  1  1
 15 16  1  0
 15 22  1  6
 16 17  1  0
 16 31  1  1
 17 18  1  6
 17 29  1  0
 18 32  1  0
M  CHG  5  19   1  20   1  21   1  22   1  33   1
M  END
$$$$
