6np5_ligand
     RDKit          3D

 33 35  0  0  0  0  0  0  0  0999 V2000
  115.4051  -15.7199   -9.2138 C   0  0  2  0  0  0  0  0  0  0  0  0
  116.3426  -14.4860   -9.7154 C   0  0  1  0  0  0  0  0  0  0  0  0
  115.5008  -13.5548  -10.5327 C   0  0  2  0  0  0  0  0  0  0  0  0
  114.7724  -14.2534  -11.6663 C   0  0  1  0  0  0  0  0  0  0  0  0
  113.9900  -15.4050  -11.0129 C   0  0  1  0  0  0  0  0  0  0  0  0
  113.3152  -16.2841  -12.1104 C   0  0  0  0  0  0  0  0  0  0  0  0
  112.1464  -16.9046   -5.6717 C   0  0  1  0  0  0  0  0  0  0  0  0
  111.7342  -15.7001   -6.4643 C   0  0  1  0  0  0  0  0  0  0  0  0
  112.7039  -15.4099   -7.4127 C   0  0  2  0  0  0  0  0  0  0  0  0
  114.1416  -15.5512   -7.2434 C   0  0  1  0  0  0  0  0  0  0  0  0
  114.5016  -16.7547   -6.4606 C   0  0  2  0  0  0  0  0  0  0  0  0
  113.6209  -16.7801   -5.2211 C   0  0  0  0  0  0  0  0  0  0  0  0
  109.9099  -15.2694   -7.9813 C   0  0  1  0  0  0  0  0  0  0  0  0
  109.0169  -13.9687   -7.8342 C   0  0  1  0  0  0  0  0  0  0  0  0
  107.5180  -14.3384   -7.6666 C   0  0  2  0  0  0  0  0  0  0  0  0
  107.0052  -15.4541   -8.5756 C   0  0  1  0  0  0  0  0  0  0  0  0
  107.9729  -16.7188   -8.3987 C   0  0  1  0  0  0  0  0  0  0  0  0
  107.5642  -17.9128   -9.4164 C   0  0  0  0  0  0  0  0  0  0  0  0
  112.4184  -17.2539  -11.6671 N   0  0  0  0  0  0  0  0  0  0  0  0
  115.9740  -16.7382   -6.0625 N   0  0  0  0  0  0  0  0  0  0  0  0
  111.2991  -16.8892   -4.3856 N   0  0  0  0  0  0  0  0  0  0  0  0
  106.6075  -13.1424   -7.6510 N   0  0  0  0  0  0  0  0  0  0  0  0
  114.7338  -16.2994  -10.2608 O   0  0  0  0  0  0  0  0  0  0  0  0
  116.4577  -12.5250  -11.1320 O   0  0  0  0  0  0  0  0  0  0  0  0
  113.9327  -13.3357  -12.3568 O   0  0  0  0  0  0  0  0  0  0  0  0
  114.8268  -15.5478   -8.3293 O   0  0  0  0  0  0  0  0  0  0  0  0
  112.2516  -14.5364   -8.4720 O   0  0  0  0  0  0  0  0  0  0  0  0
  110.5794  -15.9291   -6.9858 O   0  0  0  0  0  0  0  0  0  0  0  0
  109.3139  -16.3477   -8.6326 O   0  0  0  0  0  0  0  0  0  0  0  0
  109.4235  -13.2449   -6.6310 O   0  0  0  0  0  0  0  0  0  0  0  0
  105.7288  -15.9167   -8.1172 O   0  0  0  0  0  0  0  0  0  0  0  0
  108.3978  -18.8649   -9.3208 O   0  0  0  0  0  0  0  0  0  0  0  0
  117.1055  -13.7462   -8.5467 N   0  0  0  0  0  0  0  0  0  0  0  0
  1  2  1  0
  1 23  1  0
  1 26  1  1
  2  3  1  0
  2 33  1  1
  3  4  1  0
  3 24  1  6
  5  4  1  0
  4 25  1  1
  5  6  1  6
 23  5  1  0
  6 19  1  0
  8  7  1  0
  7 12  1  0
  7 21  1  1
  8  9  1  0
  8 28  1  6
  9 10  1  0
  9 27  1  1
 10 11  1  0
 10 26  1  6
 12 11  1  0
 11 20  1  1
 13 14  1  0
 13 28  1  1
 13 29  1  0
 14 15  1  0
 14 30  1  1
 15 16  1  0
 15 22  1  6
 16 17  1  0
 16 31  1  1
 17 18  1  6
 17 29  1  0
 18 32  1  0
M  CHG  5  19   1  20   1  21   1  22   1  33   1
M  END
$$$$
